Version 4.1
SHEET 1 880 680
WIRE -16 -240 -144 -240
WIRE 128 -240 -16 -240
WIRE -144 -208 -144 -240
WIRE -16 -208 -16 -240
WIRE 128 -144 128 -240
WIRE -16 -96 -16 -128
WIRE 64 -96 -16 -96
WIRE -144 -64 -144 -128
WIRE -16 -16 -16 -96
WIRE 128 16 128 -48
WIRE -80 32 -288 32
WIRE -288 80 -288 32
WIRE -16 112 -16 80
WIRE 128 144 128 96
WIRE -288 208 -288 160
WIRE 128 240 128 224
WIRE 400 240 128 240
WIRE 128 256 128 240
WIRE 400 272 400 240
WIRE 64 304 -32 304
WIRE -32 352 -32 304
WIRE 400 384 400 352
WIRE 128 400 128 352
WIRE -32 480 -32 432
FLAG 128 400 0
FLAG -144 -64 0
FLAG -16 112 0
FLAG -288 208 0
FLAG -32 480 0
FLAG 400 384 0
SYMBOL pnp 64 -48 M180
SYMATTR InstName Q1
SYMBOL npn 64 256 R0
SYMATTR InstName Q2
SYMBOL res 112 128 R0
SYMATTR InstName R1
SYMATTR Value 85k
SYMBOL res 112 0 R0
SYMATTR InstName R2
SYMATTR Value 15k
SYMBOL voltage -144 -224 R0
WINDOW 123 0 0 Left 0
WINDOW 39 0 0 Left 0
SYMATTR InstName V1
SYMATTR Value 200
SYMBOL npn -80 -16 R0
SYMATTR InstName Q3
SYMBOL res -32 -224 R0
SYMATTR InstName R3
SYMATTR Value 100k
SYMBOL voltage -288 64 R0
WINDOW 123 0 0 Left 0
WINDOW 39 0 0 Left 0
SYMATTR InstName V2
SYMATTR Value PULSE(0 3.3 0.1 1n 1n 0.5 1 20)
SYMBOL voltage -32 336 R0
WINDOW 123 0 0 Left 0
WINDOW 39 0 0 Left 0
SYMATTR InstName V3
SYMATTR Value PULSE(0 3.3 0.1 1n 1n 1 2 10)
SYMBOL res 384 256 R0
SYMATTR InstName R4
SYMATTR Value 1Meg
TEXT -224 504 Left 2 !.tran 10
